16727128
  -OEChem-09172403233D

 52 54  0     1  0  0  0  0  0999 V2000
   -6.6965   -0.7743   -0.0598 Cl  0  0  0  0  0  0  0  0  0  0  0  0
    6.1055    1.1063   -2.1297 Cl  0  0  0  0  0  0  0  0  0  0  0  0
    4.2760   -2.0240    1.9539 Cl  0  0  0  0  0  0  0  0  0  0  0  0
   -5.4472    2.3852   -0.0258 O   0  0  0  0  0  0  0  0  0  0  0  0
   -4.2557    4.1270    0.7845 O   0  0  0  0  0  0  0  0  0  0  0  0
   -3.8726   -0.0687    1.9706 O   0  0  0  0  0  0  0  0  0  0  0  0
    3.4161   -1.0081   -1.3036 O   0  0  0  0  0  0  0  0  0  0  0  0
   -3.4063    0.7542   -0.1469 N   0  0  0  0  0  0  0  0  0  0  0  0
    3.2747    0.8693    0.1048 N   0  0  0  0  0  0  0  0  0  0  0  0
   -3.0575    2.0912    0.2639 C   0  0  1  0  0  0  0  0  0  0  0  0
   -2.0488    2.7220   -0.7049 C   0  0  0  0  0  0  0  0  0  0  0  0
   -0.6379    2.2300   -0.4892 C   0  0  0  0  0  0  0  0  0  0  0  0
    0.2073    2.9010    0.3945 C   0  0  0  0  0  0  0  0  0  0  0  0
   -0.1791    1.1052   -1.1749 C   0  0  0  0  0  0  0  0  0  0  0  0
   -4.2935    2.9719    0.3735 C   0  0  0  0  0  0  0  0  0  0  0  0
   -3.7903   -0.2276    0.7555 C   0  0  0  0  0  0  0  0  0  0  0  0
    1.9700    1.3223   -0.0928 C   0  0  0  0  0  0  0  0  0  0  0  0
   -4.0922   -1.5619    0.1760 C   0  0  0  0  0  0  0  0  0  0  0  0
    1.5112    2.4471    0.5928 C   0  0  0  0  0  0  0  0  0  0  0  0
    1.1248    0.6513   -0.9766 C   0  0  0  0  0  0  0  0  0  0  0  0
   -3.0614   -2.4904    0.0313 C   0  0  0  0  0  0  0  0  0  0  0  0
   -5.3882   -1.8910   -0.2213 C   0  0  0  0  0  0  0  0  0  0  0  0
   -3.3266   -3.7481   -0.5103 C   0  0  0  0  0  0  0  0  0  0  0  0
   -1.6622   -2.1691    0.4465 C   0  0  0  0  0  0  0  0  0  0  0  0
   -5.6533   -3.1487   -0.7630 C   0  0  0  0  0  0  0  0  0  0  0  0
   -4.6226   -4.0773   -0.9075 C   0  0  0  0  0  0  0  0  0  0  0  0
    3.9050   -0.2319   -0.4897 C   0  0  0  0  0  0  0  0  0  0  0  0
    5.3039   -0.4783   -0.0520 C   0  0  0  0  0  0  0  0  0  0  0  0
    6.3651    0.0984   -0.7500 C   0  0  0  0  0  0  0  0  0  0  0  0
    5.5558   -1.2873    1.0560 C   0  0  0  0  0  0  0  0  0  0  0  0
    7.6779   -0.1337   -0.3399 C   0  0  0  0  0  0  0  0  0  0  0  0
    6.8687   -1.5193    1.4661 C   0  0  0  0  0  0  0  0  0  0  0  0
    7.9298   -0.9426    0.7682 C   0  0  0  0  0  0  0  0  0  0  0  0
   -2.6408    2.0345    1.2777 H   0  0  0  0  0  0  0  0  0  0  0  0
   -2.0454    3.8152   -0.5981 H   0  0  0  0  0  0  0  0  0  0  0  0
   -2.3463    2.5423   -1.7471 H   0  0  0  0  0  0  0  0  0  0  0  0
   -3.4146    0.5380   -1.1400 H   0  0  0  0  0  0  0  0  0  0  0  0
   -0.1394    3.7771    0.9360 H   0  0  0  0  0  0  0  0  0  0  0  0
   -0.8277    0.5765   -1.8685 H   0  0  0  0  0  0  0  0  0  0  0  0
    2.1589    2.9794    1.2848 H   0  0  0  0  0  0  0  0  0  0  0  0
    1.4050   -0.2251   -1.5437 H   0  0  0  0  0  0  0  0  0  0  0  0
    3.8284    1.4091    0.7668 H   0  0  0  0  0  0  0  0  0  0  0  0
   -2.5353   -4.4830   -0.6315 H   0  0  0  0  0  0  0  0  0  0  0  0
   -1.0225   -3.0587    0.4340 H   0  0  0  0  0  0  0  0  0  0  0  0
   -1.6328   -1.7756    1.4677 H   0  0  0  0  0  0  0  0  0  0  0  0
   -1.2244   -1.4400   -0.2389 H   0  0  0  0  0  0  0  0  0  0  0  0
   -6.6576   -3.4213   -1.0775 H   0  0  0  0  0  0  0  0  0  0  0  0
   -4.8290   -5.0564   -1.3297 H   0  0  0  0  0  0  0  0  0  0  0  0
   -6.2150    2.9896    0.0594 H   0  0  0  0  0  0  0  0  0  0  0  0
    8.5163    0.3077   -0.8727 H   0  0  0  0  0  0  0  0  0  0  0  0
    7.0826   -2.1470    2.3274 H   0  0  0  0  0  0  0  0  0  0  0  0
    8.9520   -1.1234    1.0875 H   0  0  0  0  0  0  0  0  0  0  0  0
  1 22  1  0  0  0  0
  2 29  1  0  0  0  0
  3 30  1  0  0  0  0
  4 15  1  0  0  0  0
  4 49  1  0  0  0  0
  5 15  2  0  0  0  0
  6 16  2  0  0  0  0
  7 27  2  0  0  0  0
  8 10  1  0  0  0  0
  8 16  1  0  0  0  0
  8 37  1  0  0  0  0
  9 17  1  0  0  0  0
  9 27  1  0  0  0  0
  9 42  1  0  0  0  0
 10 11  1  0  0  0  0
 10 15  1  0  0  0  0
 10 34  1  0  0  0  0
 11 12  1  0  0  0  0
 11 35  1  0  0  0  0
 11 36  1  0  0  0  0
 12 13  2  0  0  0  0
 12 14  1  0  0  0  0
 13 19  1  0  0  0  0
 13 38  1  0  0  0  0
 14 20  2  0  0  0  0
 14 39  1  0  0  0  0
 16 18  1  0  0  0  0
 17 19  2  0  0  0  0
 17 20  1  0  0  0  0
 18 21  2  0  0  0  0
 18 22  1  0  0  0  0
 19 40  1  0  0  0  0
 20 41  1  0  0  0  0
 21 23  1  0  0  0  0
 21 24  1  0  0  0  0
 22 25  2  0  0  0  0
 23 26  2  0  0  0  0
 23 43  1  0  0  0  0
 24 44  1  0  0  0  0
 24 45  1  0  0  0  0
 24 46  1  0  0  0  0
 25 26  1  0  0  0  0
 25 47  1  0  0  0  0
 26 48  1  0  0  0  0
 27 28  1  0  0  0  0
 28 29  2  0  0  0  0
 28 30  1  0  0  0  0
 29 31  1  0  0  0  0
 30 32  2  0  0  0  0
 31 33  2  0  0  0  0
 31 50  1  0  0  0  0
 32 33  1  0  0  0  0
 32 51  1  0  0  0  0
 33 52  1  0  0  0  0
M  END
> <PUBCHEM_COMPOUND_CID>
16727128

> <PUBCHEM_CONFORMER_RMSD>
1

> <PUBCHEM_CONFORMER_DIVERSEORDER>
1
52
19
29
34
77
72
31
13
16
69
50
63
71
76
27
65
49
68
46
53
18
74
25
8
7
59
23
47
70
67
41
58
14
12
28
60
22
43
2
21
54
24
75
73
51
57
45
78
38
36
4
20
42
30
11
66
5
44
64
26
10
39
48
56
6
9
35
62
55
33
32
3
61
15
37
40
17

> <PUBCHEM_MMFF94_PARTIAL_CHARGES>
46
1 -0.18
10 0.36
11 0.14
12 -0.14
13 -0.15
14 -0.15
15 0.66
16 0.54
17 0.12
18 0.09
19 -0.15
2 -0.18
20 -0.15
21 -0.14
22 0.18
23 -0.15
24 0.14
25 -0.15
26 -0.15
27 0.54
28 0.09
29 0.18
3 -0.18
30 0.18
31 -0.15
32 -0.15
33 -0.15
37 0.37
38 0.15
39 0.15
4 -0.65
40 0.15
41 0.15
42 0.37
43 0.15
47 0.15
48 0.15
49 0.5
5 -0.57
50 0.15
51 0.15
52 0.15
6 -0.57
7 -0.57
8 -0.73
9 -0.55

> <PUBCHEM_EFFECTIVE_ROTOR_COUNT>
9

> <PUBCHEM_PHARMACOPHORE_FEATURES>
10
1 4 acceptor
1 5 acceptor
1 6 acceptor
1 7 acceptor
1 8 donor
1 9 donor
3 4 5 15 anion
6 12 13 14 17 19 20 rings
6 18 21 22 23 25 26 rings
6 28 29 30 31 32 33 rings

> <PUBCHEM_HEAVY_ATOM_COUNT>
33

> <PUBCHEM_ATOM_DEF_STEREO_COUNT>
1

> <PUBCHEM_ATOM_UDEF_STEREO_COUNT>
0

> <PUBCHEM_BOND_DEF_STEREO_COUNT>
0

> <PUBCHEM_BOND_UDEF_STEREO_COUNT>
0

> <PUBCHEM_ISOTOPIC_ATOM_COUNT>
0

> <PUBCHEM_COMPONENT_COUNT>
1

> <PUBCHEM_CACTVS_TAUTO_COUNT>
4

> <PUBCHEM_CONFORMER_ID>
00FF3C5800000001

> <PUBCHEM_MMFF94_ENERGY>
98.7151

> <PUBCHEM_FEATURE_SELFOVERLAP>
50.808

> <PUBCHEM_SHAPE_FINGERPRINT>
10050765 1 18340204201840699736
10319688 45 18409446964517536373
10483366 6 18337939135932314493
10939801 23 18267865163623061526
10940486 97 18334868194654511165
11963148 33 18337105667132308614
12522641 126 18044941414501794140
13560911 43 18339087098273974499
13631057 29 18335135398097396378
13690498 29 18113329812981674565
13782708 43 17988643042686782294
14040222 383 18341894035907481337
14068700 675 18341048631344360463
14844126 61 18409172091342831649
14856354 85 18272653398506265628
14866123 147 18411139135088243539
15183329 4 18335985346039551226
15250474 111 18334010575715778502
19611394 137 18202845440377524520
19841028 212 17983010356720359391
23516275 137 17828787048679722906
23522609 53 18043559186361615132
23559900 14 18197212770888551137
23569914 152 13193661718859775506
3383291 50 18341613686222140603
397830 11 18130496531556024120
439807 62 18186521020391834943
4616759 239 17845363363357868352
484985 159 18408594869291921279
5085150 59 18342731884899499039
6431902 208 18040720281312846106
6691757 9 18272092635535080417
8863177 126 18341889740618035216

> <PUBCHEM_SHAPE_MULTIPOLES>
651.29
20.82
4.72
1.38
24.82
0.29
0.05
-11.08
0.57
-9.46
0.05
1.69
-0.24
-3.42

> <PUBCHEM_SHAPE_SELFOVERLAP>
1377.132

> <PUBCHEM_SHAPE_VOLUME>
365.2

> <PUBCHEM_COORDINATE_TYPE>
2
5
10

$$$$
